<nodes>
    <!-- Center intersection -->
    <node id="C" x="0" y="0" type="traffic_light"/>

    <!-- Entry/exit endpoints (100m from center) -->
    <node id="N" x="0"    y="100"  type="priority"/>
    <node id="S" x="0"    y="-100" type="priority"/>
    <node id="E" x="100"  y="0"    type="priority"/>
    <node id="W" x="-100" y="0"    type="priority"/>
</nodes>
