<routes>
    <!-- ============================================================ -->
    <!-- SCENARIO v2: Unbalanced + time-varying demand                -->
    <!-- Phase 1 (0-60s):  N/S heavy 0.5 veh/s, E/W light 0.1 veh/s -->
    <!-- Phase 2 (60-120s): N/S drops to 0.1, E/W surges to 0.5     -->
    <!-- Turn split: 60% through, 20% left, 20% right                -->
    <!-- Fixed seed for reproducibility                               -->
    <!-- ============================================================ -->

    <!-- Vehicle types -->
    <vType id="car"   length="5.0"  width="2.0" minGap="2.5" maxSpeed="8.33"  accel="2.0" decel="4.5" sigma="0.5" probability="0.70"
           guiShape="passenger" color="0.8,0.1,0.1"/>
    <vType id="van"   length="5.75" width="2.2" minGap="2.5" maxSpeed="7.50"  accel="1.8" decel="4.0" sigma="0.5" probability="0.15"
           guiShape="delivery" color="0.9,0.8,0.3"/>
    <vType id="truck" length="10.0" width="2.5" minGap="3.0" maxSpeed="6.94"  accel="1.2" decel="3.5" sigma="0.5" probability="0.10"
           guiShape="truck" color="0.6,0.4,0.2"/>
    <vType id="bus"   length="12.0" width="2.5" minGap="3.0" maxSpeed="6.94"  accel="1.2" decel="3.5" sigma="0.5" probability="0.05"
           guiShape="bus" color="0.2,0.6,0.8"/>

    <!-- Routes -->
    <route id="N_through" edges="N_to_C C_to_S"/>
    <route id="N_left"    edges="N_to_C C_to_E"/>
    <route id="N_right"   edges="N_to_C C_to_W"/>
    <route id="S_through" edges="S_to_C C_to_N"/>
    <route id="S_left"    edges="S_to_C C_to_W"/>
    <route id="S_right"   edges="S_to_C C_to_E"/>
    <route id="E_through" edges="E_to_C C_to_W"/>
    <route id="E_left"    edges="E_to_C C_to_S"/>
    <route id="E_right"   edges="E_to_C C_to_N"/>
    <route id="W_through" edges="W_to_C C_to_E"/>
    <route id="W_left"    edges="W_to_C C_to_N"/>
    <route id="W_right"   edges="W_to_C C_to_S"/>

    <!-- ═══════════════════════════════════════════════════════════ -->
    <!-- PHASE 1: 0-60s — N/S HEAVY (0.5 veh/s), E/W LIGHT (0.1)  -->
    <!-- ═══════════════════════════════════════════════════════════ -->

    <!-- North: 0.5 veh/s -->
    <flow id="N1_through" route="N_through" begin="0" end="60" probability="0.30" departLane="best" departSpeed="desired" type="car"/>
    <flow id="N1_left"    route="N_left"    begin="0" end="60" probability="0.10" departLane="best" departSpeed="desired" type="car"/>
    <flow id="N1_right"   route="N_right"   begin="0" end="60" probability="0.10" departLane="best" departSpeed="desired" type="car"/>

    <!-- South: 0.5 veh/s -->
    <flow id="S1_through" route="S_through" begin="0" end="60" probability="0.30" departLane="best" departSpeed="desired" type="car"/>
    <flow id="S1_left"    route="S_left"    begin="0" end="60" probability="0.10" departLane="best" departSpeed="desired" type="car"/>
    <flow id="S1_right"   route="S_right"   begin="0" end="60" probability="0.10" departLane="best" departSpeed="desired" type="car"/>

    <!-- East: 0.1 veh/s -->
    <flow id="E1_through" route="E_through" begin="0" end="60" probability="0.06" departLane="best" departSpeed="desired" type="car"/>
    <flow id="E1_left"    route="E_left"    begin="0" end="60" probability="0.02" departLane="best" departSpeed="desired" type="car"/>
    <flow id="E1_right"   route="E_right"   begin="0" end="60" probability="0.02" departLane="best" departSpeed="desired" type="car"/>

    <!-- West: 0.1 veh/s -->
    <flow id="W1_through" route="W_through" begin="0" end="60" probability="0.06" departLane="best" departSpeed="desired" type="car"/>
    <flow id="W1_left"    route="W_left"    begin="0" end="60" probability="0.02" departLane="best" departSpeed="desired" type="car"/>
    <flow id="W1_right"   route="W_right"   begin="0" end="60" probability="0.02" departLane="best" departSpeed="desired" type="car"/>

    <!-- ═══════════════════════════════════════════════════════════ -->
    <!-- PHASE 2: 60-120s — DEMAND FLIPS                           -->
    <!-- N/S drops to 0.1, E/W surges to 0.5                      -->
    <!-- ═══════════════════════════════════════════════════════════ -->

    <!-- North: 0.1 veh/s -->
    <flow id="N2_through" route="N_through" begin="60" end="120" probability="0.06" departLane="best" departSpeed="desired" type="car"/>
    <flow id="N2_left"    route="N_left"    begin="60" end="120" probability="0.02" departLane="best" departSpeed="desired" type="car"/>
    <flow id="N2_right"   route="N_right"   begin="60" end="120" probability="0.02" departLane="best" departSpeed="desired" type="car"/>

    <!-- South: 0.1 veh/s -->
    <flow id="S2_through" route="S_through" begin="60" end="120" probability="0.06" departLane="best" departSpeed="desired" type="car"/>
    <flow id="S2_left"    route="S_left"    begin="60" end="120" probability="0.02" departLane="best" departSpeed="desired" type="car"/>
    <flow id="S2_right"   route="S_right"   begin="60" end="120" probability="0.02" departLane="best" departSpeed="desired" type="car"/>

    <!-- East: 0.5 veh/s -->
    <flow id="E2_through" route="E_through" begin="60" end="120" probability="0.30" departLane="best" departSpeed="desired" type="car"/>
    <flow id="E2_left"    route="E_left"    begin="60" end="120" probability="0.10" departLane="best" departSpeed="desired" type="car"/>
    <flow id="E2_right"   route="E_right"   begin="60" end="120" probability="0.10" departLane="best" departSpeed="desired" type="car"/>

    <!-- West: 0.5 veh/s -->
    <flow id="W2_through" route="W_through" begin="60" end="120" probability="0.30" departLane="best" departSpeed="desired" type="car"/>
    <flow id="W2_left"    route="W_left"    begin="60" end="120" probability="0.10" departLane="best" departSpeed="desired" type="car"/>
    <flow id="W2_right"   route="W_right"   begin="60" end="120" probability="0.10" departLane="best" departSpeed="desired" type="car"/>
</routes>
