<?xml version="1.0" encoding="UTF-8"?>

<!-- generated on 2026-03-13T20:38:41.889337-06:00 by Eclipse SUMO netgenerate 1.26.0
<netgenerateConfiguration xmlns:xsi="http://www.w3.org/2001/XMLSchema-instance" xsi:noNamespaceSchemaLocation="http://sumo.dlr.de/xsd/netgenerateConfiguration.xsd">

    <grid_network>
        <grid value="true"/>
        <grid.x-number value="1"/>
        <grid.y-number value="1"/>
        <grid.attach-length value="200"/>
    </grid_network>

    <output>
        <output-file value="data/sumo/cross.net.xml"/>
    </output>

    <building_defaults>
        <default.lanenumber value="3"/>
        <default.speed value="15"/>
    </building_defaults>

    <tls_building>
        <tls.guess value="true"/>
    </tls_building>

</netgenerateConfiguration>
-->

<net version="1.20" junctionCornerDetail="5" limitTurnSpeed="5.50" xmlns:xsi="http://www.w3.org/2001/XMLSchema-instance" xsi:noNamespaceSchemaLocation="http://sumo.dlr.de/xsd/net_file.xsd">

    <location netOffset="0.00,0.00" convBoundary="0.00,0.00,400.00,400.00" origBoundary="0.00,0.00,400.00,400.00" projParameter="!"/>

    <edge id=":A0_0" function="internal">
        <lane id=":A0_0_0" index="0" speed="6.51" length="9.03" shape="192.00,213.60 191.65,211.15 190.60,209.40 188.85,208.35 186.40,208.00"/>
    </edge>
    <edge id=":A0_1" function="internal">
        <lane id=":A0_1_0" index="0" speed="15.00" length="27.20" shape="192.00,213.60 192.00,186.40"/>
        <lane id=":A0_1_1" index="1" speed="15.00" length="27.20" shape="195.20,213.60 195.20,186.40"/>
        <lane id=":A0_1_2" index="2" speed="15.00" length="27.20" shape="198.40,213.60 198.40,186.40"/>
    </edge>
    <edge id=":A0_4" function="internal">
        <lane id=":A0_4_0" index="0" speed="10.36" length="5.01" shape="198.40,213.60 199.11,208.64"/>
    </edge>
    <edge id=":A0_5" function="internal">
        <lane id=":A0_5_0" index="0" speed="3.65" length="1.44" shape="198.40,213.60 199.20,212.40"/>
    </edge>
    <edge id=":A0_24" function="internal">
        <lane id=":A0_24_0" index="0" speed="10.36" length="19.50" shape="199.11,208.64 199.35,206.95 202.20,202.20 206.95,199.35 213.60,198.40"/>
    </edge>
    <edge id=":A0_25" function="internal">
        <lane id=":A0_25_0" index="0" speed="3.65" length="3.23" shape="199.20,212.40 200.00,212.00 200.80,212.40 201.60,213.60"/>
    </edge>
    <edge id=":A0_6" function="internal">
        <lane id=":A0_6_0" index="0" speed="6.51" length="9.03" shape="213.60,208.00 211.15,208.35 209.40,209.40 208.35,211.15 208.00,213.60"/>
    </edge>
    <edge id=":A0_7" function="internal">
        <lane id=":A0_7_0" index="0" speed="15.00" length="27.20" shape="213.60,208.00 186.40,208.00"/>
        <lane id=":A0_7_1" index="1" speed="15.00" length="27.20" shape="213.60,204.80 186.40,204.80"/>
        <lane id=":A0_7_2" index="2" speed="15.00" length="27.20" shape="213.60,201.60 186.40,201.60"/>
    </edge>
    <edge id=":A0_10" function="internal">
        <lane id=":A0_10_0" index="0" speed="10.36" length="5.01" shape="213.60,201.60 208.64,200.89"/>
    </edge>
    <edge id=":A0_11" function="internal">
        <lane id=":A0_11_0" index="0" speed="3.65" length="1.44" shape="213.60,201.60 212.40,200.80"/>
    </edge>
    <edge id=":A0_26" function="internal">
        <lane id=":A0_26_0" index="0" speed="10.36" length="19.50" shape="208.64,200.89 206.95,200.65 202.20,197.80 199.35,193.05 198.40,186.40"/>
    </edge>
    <edge id=":A0_27" function="internal">
        <lane id=":A0_27_0" index="0" speed="3.65" length="3.23" shape="212.40,200.80 212.00,200.00 212.40,199.20 213.60,198.40"/>
    </edge>
    <edge id=":A0_12" function="internal">
        <lane id=":A0_12_0" index="0" speed="6.51" length="9.03" shape="208.00,186.40 208.35,188.85 209.40,190.60 211.15,191.65 213.60,192.00"/>
    </edge>
    <edge id=":A0_13" function="internal">
        <lane id=":A0_13_0" index="0" speed="15.00" length="27.20" shape="208.00,186.40 208.00,213.60"/>
        <lane id=":A0_13_1" index="1" speed="15.00" length="27.20" shape="204.80,186.40 204.80,213.60"/>
        <lane id=":A0_13_2" index="2" speed="15.00" length="27.20" shape="201.60,186.40 201.60,213.60"/>
    </edge>
    <edge id=":A0_16" function="internal">
        <lane id=":A0_16_0" index="0" speed="10.36" length="5.01" shape="201.60,186.40 200.89,191.36"/>
    </edge>
    <edge id=":A0_17" function="internal">
        <lane id=":A0_17_0" index="0" speed="3.65" length="1.44" shape="201.60,186.40 200.80,187.60"/>
    </edge>
    <edge id=":A0_28" function="internal">
        <lane id=":A0_28_0" index="0" speed="10.36" length="19.50" shape="200.89,191.36 200.65,193.05 197.80,197.80 193.05,200.65 186.40,201.60"/>
    </edge>
    <edge id=":A0_29" function="internal">
        <lane id=":A0_29_0" index="0" speed="3.65" length="3.23" shape="200.80,187.60 200.00,188.00 199.20,187.60 198.40,186.40"/>
    </edge>
    <edge id=":A0_18" function="internal">
        <lane id=":A0_18_0" index="0" speed="6.51" length="9.03" shape="186.40,192.00 188.85,191.65 190.60,190.60 191.65,188.85 192.00,186.40"/>
    </edge>
    <edge id=":A0_19" function="internal">
        <lane id=":A0_19_0" index="0" speed="15.00" length="27.20" shape="186.40,192.00 213.60,192.00"/>
        <lane id=":A0_19_1" index="1" speed="15.00" length="27.20" shape="186.40,195.20 213.60,195.20"/>
        <lane id=":A0_19_2" index="2" speed="15.00" length="27.20" shape="186.40,198.40 213.60,198.40"/>
    </edge>
    <edge id=":A0_22" function="internal">
        <lane id=":A0_22_0" index="0" speed="10.36" length="5.01" shape="186.40,198.40 191.36,199.11"/>
    </edge>
    <edge id=":A0_23" function="internal">
        <lane id=":A0_23_0" index="0" speed="3.65" length="1.44" shape="186.40,198.40 187.60,199.20"/>
    </edge>
    <edge id=":A0_30" function="internal">
        <lane id=":A0_30_0" index="0" speed="10.36" length="19.50" shape="191.36,199.11 193.05,199.35 197.80,202.20 200.65,206.95 201.60,213.60"/>
    </edge>
    <edge id=":A0_31" function="internal">
        <lane id=":A0_31_0" index="0" speed="3.65" length="3.23" shape="187.60,199.20 188.00,200.00 187.60,200.80 186.40,201.60"/>
    </edge>
    <edge id=":bottom0_0" function="internal">
        <lane id=":bottom0_0_0" index="0" speed="3.65" length="4.67" shape="198.40,0.00 199.20,-1.20 200.00,-1.60 200.80,-1.20 201.60,0.00"/>
    </edge>
    <edge id=":left0_0" function="internal">
        <lane id=":left0_0_0" index="0" speed="3.65" length="4.67" shape="0.00,201.60 -1.20,200.80 -1.60,200.00 -1.20,199.20 0.00,198.40"/>
    </edge>
    <edge id=":right0_0" function="internal">
        <lane id=":right0_0_0" index="0" speed="3.65" length="4.67" shape="400.00,198.40 401.20,199.20 401.60,200.00 401.20,200.80 400.00,201.60"/>
    </edge>
    <edge id=":top0_0" function="internal">
        <lane id=":top0_0_0" index="0" speed="3.65" length="4.67" shape="201.60,400.00 200.80,401.20 200.00,401.60 199.20,401.20 198.40,400.00"/>
    </edge>

    <edge id="A0bottom0" from="A0" to="bottom0" priority="-1">
        <lane id="A0bottom0_0" index="0" speed="15.00" length="186.40" shape="192.00,186.40 192.00,0.00"/>
        <lane id="A0bottom0_1" index="1" speed="15.00" length="186.40" shape="195.20,186.40 195.20,0.00"/>
        <lane id="A0bottom0_2" index="2" speed="15.00" length="186.40" shape="198.40,186.40 198.40,0.00"/>
    </edge>
    <edge id="A0left0" from="A0" to="left0" priority="-1">
        <lane id="A0left0_0" index="0" speed="15.00" length="186.40" shape="186.40,208.00 0.00,208.00"/>
        <lane id="A0left0_1" index="1" speed="15.00" length="186.40" shape="186.40,204.80 0.00,204.80"/>
        <lane id="A0left0_2" index="2" speed="15.00" length="186.40" shape="186.40,201.60 0.00,201.60"/>
    </edge>
    <edge id="A0right0" from="A0" to="right0" priority="-1">
        <lane id="A0right0_0" index="0" speed="15.00" length="186.40" shape="213.60,192.00 400.00,192.00"/>
        <lane id="A0right0_1" index="1" speed="15.00" length="186.40" shape="213.60,195.20 400.00,195.20"/>
        <lane id="A0right0_2" index="2" speed="15.00" length="186.40" shape="213.60,198.40 400.00,198.40"/>
    </edge>
    <edge id="A0top0" from="A0" to="top0" priority="-1">
        <lane id="A0top0_0" index="0" speed="15.00" length="186.40" shape="208.00,213.60 208.00,400.00"/>
        <lane id="A0top0_1" index="1" speed="15.00" length="186.40" shape="204.80,213.60 204.80,400.00"/>
        <lane id="A0top0_2" index="2" speed="15.00" length="186.40" shape="201.60,213.60 201.60,400.00"/>
    </edge>
    <edge id="bottom0A0" from="bottom0" to="A0" priority="-1">
        <lane id="bottom0A0_0" index="0" speed="15.00" length="186.40" shape="208.00,0.00 208.00,186.40"/>
        <lane id="bottom0A0_1" index="1" speed="15.00" length="186.40" shape="204.80,0.00 204.80,186.40"/>
        <lane id="bottom0A0_2" index="2" speed="15.00" length="186.40" shape="201.60,0.00 201.60,186.40"/>
    </edge>
    <edge id="left0A0" from="left0" to="A0" priority="-1">
        <lane id="left0A0_0" index="0" speed="15.00" length="186.40" shape="0.00,192.00 186.40,192.00"/>
        <lane id="left0A0_1" index="1" speed="15.00" length="186.40" shape="0.00,195.20 186.40,195.20"/>
        <lane id="left0A0_2" index="2" speed="15.00" length="186.40" shape="0.00,198.40 186.40,198.40"/>
    </edge>
    <edge id="right0A0" from="right0" to="A0" priority="-1">
        <lane id="right0A0_0" index="0" speed="15.00" length="186.40" shape="400.00,208.00 213.60,208.00"/>
        <lane id="right0A0_1" index="1" speed="15.00" length="186.40" shape="400.00,204.80 213.60,204.80"/>
        <lane id="right0A0_2" index="2" speed="15.00" length="186.40" shape="400.00,201.60 213.60,201.60"/>
    </edge>
    <edge id="top0A0" from="top0" to="A0" priority="-1">
        <lane id="top0A0_0" index="0" speed="15.00" length="186.40" shape="192.00,400.00 192.00,213.60"/>
        <lane id="top0A0_1" index="1" speed="15.00" length="186.40" shape="195.20,400.00 195.20,213.60"/>
        <lane id="top0A0_2" index="2" speed="15.00" length="186.40" shape="198.40,400.00 198.40,213.60"/>
    </edge>

    <tlLogic id="A0" type="static" programID="0" offset="0">
        <phase duration="42" state="GGGGggrrrrrrGGGGggrrrrrr"/>
        <phase duration="3"  state="yyyyyyrrrrrryyyyyyrrrrrr"/>
        <phase duration="42" state="rrrrrrGGGGggrrrrrrGGGGgg"/>
        <phase duration="3"  state="rrrrrryyyyyyrrrrrryyyyyy"/>
    </tlLogic>

    <junction id="A0" type="traffic_light" x="200.00" y="200.00" incLanes="top0A0_0 top0A0_1 top0A0_2 right0A0_0 right0A0_1 right0A0_2 bottom0A0_0 bottom0A0_1 bottom0A0_2 left0A0_0 left0A0_1 left0A0_2" intLanes=":A0_0_0 :A0_1_0 :A0_1_1 :A0_1_2 :A0_24_0 :A0_25_0 :A0_6_0 :A0_7_0 :A0_7_1 :A0_7_2 :A0_26_0 :A0_27_0 :A0_12_0 :A0_13_0 :A0_13_1 :A0_13_2 :A0_28_0 :A0_29_0 :A0_18_0 :A0_19_0 :A0_19_1 :A0_19_2 :A0_30_0 :A0_31_0" shape="190.40,213.60 209.60,213.60 210.04,211.38 210.60,210.60 211.38,210.04 212.38,209.71 213.60,209.60 213.60,190.40 211.38,189.96 210.60,189.40 210.04,188.62 209.71,187.62 209.60,186.40 190.40,186.40 189.96,188.62 189.40,189.40 188.62,189.96 187.62,190.29 186.40,190.40 186.40,209.60 188.62,210.04 189.40,210.60 189.96,211.38 190.29,212.38">
        <request index="0"  response="000000000000000000000000" foes="000000000000001110000000" cont="0"/>
        <request index="1"  response="010000000000000000000000" foes="011111110000011110000000" cont="0"/>
        <request index="2"  response="010000000000000000000000" foes="011111110000011110000000" cont="0"/>
        <request index="3"  response="010000000000010000000000" foes="011111110000011110000000" cont="0"/>
        <request index="4"  response="010000001110010000000000" foes="011110001110111110000000" cont="1"/>
        <request index="5"  response="010000001110000000000000" foes="010000001110000000000000" cont="1"/>
        <request index="6"  response="000000001110000000000000" foes="000000001110000000000000" cont="0"/>
        <request index="7"  response="000000011110000000011111" foes="110000011110000000011111" cont="0"/>
        <request index="8"  response="000000011110000000011111" foes="110000011110000000011111" cont="0"/>
        <request index="9"  response="000000011110000000011111" foes="110000011110000000011111" cont="0"/>
        <request index="10" response="001110011110000000011110" foes="001110111110000000011110" cont="1"/>
        <request index="11" response="001110000000000000010000" foes="001110000000000000010000" cont="1"/>
        <request index="12" response="000000000000000000000000" foes="001110000000000000000000" cont="0"/>
        <request index="13" response="000000000000010000000000" foes="011110000000011111110000" cont="0"/>
        <request index="14" response="000000000000010000000000" foes="011110000000011111110000" cont="0"/>
        <request index="15" response="010000000000010000000000" foes="011110000000011111110000" cont="0"/>
        <request index="16" response="010000000000010000001110" foes="111110000000011110001110" cont="1"/>
        <request index="17" response="000000000000010000001110" foes="000000000000010000001110" cont="1"/>
        <request index="18" response="000000000000000000001110" foes="000000000000000000001110" cont="0"/>
        <request index="19" response="000000011111000000011110" foes="000000011111110000011110" cont="0"/>
        <request index="20" response="000000011111000000011110" foes="000000011111110000011110" cont="0"/>
        <request index="21" response="000000011111000000011110" foes="000000011111110000011110" cont="0"/>
        <request index="22" response="000000011110001110011110" foes="000000011110001110111110" cont="1"/>
        <request index="23" response="000000010000001110000000" foes="000000010000001110000000" cont="1"/>
    </junction>
    <junction id="bottom0" type="priority" x="200.00" y="0.00" incLanes="A0bottom0_0 A0bottom0_1 A0bottom0_2" intLanes=":bottom0_0_0" shape="200.00,0.00 190.40,0.00 200.00,0.00" fringe="outer">
        <request index="0" response="0" foes="0" cont="0"/>
    </junction>
    <junction id="left0" type="priority" x="0.00" y="200.00" incLanes="A0left0_0 A0left0_1 A0left0_2" intLanes=":left0_0_0" shape="0.00,200.00 0.00,209.60 0.00,200.00" fringe="outer">
        <request index="0" response="0" foes="0" cont="0"/>
    </junction>
    <junction id="right0" type="priority" x="400.00" y="200.00" incLanes="A0right0_0 A0right0_1 A0right0_2" intLanes=":right0_0_0" shape="400.00,200.00 400.00,190.40 400.00,200.00" fringe="outer">
        <request index="0" response="0" foes="0" cont="0"/>
    </junction>
    <junction id="top0" type="priority" x="200.00" y="400.00" incLanes="A0top0_0 A0top0_1 A0top0_2" intLanes=":top0_0_0" shape="200.00,400.00 209.60,400.00 200.00,400.00" fringe="outer">
        <request index="0" response="0" foes="0" cont="0"/>
    </junction>

    <junction id=":A0_24_0" type="internal" x="199.11" y="208.64" incLanes=":A0_4_0 bottom0A0_0 bottom0A0_1 bottom0A0_2" intLanes=":A0_7_0 :A0_7_1 :A0_7_2 :A0_10_0 :A0_11_0 :A0_12_0 :A0_13_0 :A0_13_1 :A0_13_2 :A0_19_0 :A0_19_1 :A0_19_2 :A0_22_0"/>
    <junction id=":A0_25_0" type="internal" x="199.20" y="212.40" incLanes=":A0_5_0 bottom0A0_0 bottom0A0_1 bottom0A0_2 left0A0_2 right0A0_0" intLanes=":A0_6_0 :A0_13_0 :A0_13_1 :A0_13_2 :A0_22_0"/>
    <junction id=":A0_26_0" type="internal" x="208.64" y="200.89" incLanes=":A0_10_0 left0A0_0 left0A0_1 left0A0_2" intLanes=":A0_1_0 :A0_1_1 :A0_1_2 :A0_4_0 :A0_13_0 :A0_13_1 :A0_13_2 :A0_16_0 :A0_17_0 :A0_18_0 :A0_19_0 :A0_19_1 :A0_19_2"/>
    <junction id=":A0_27_0" type="internal" x="212.40" y="200.80" incLanes=":A0_11_0 bottom0A0_0 left0A0_0 left0A0_1 left0A0_2 top0A0_2" intLanes=":A0_4_0 :A0_12_0 :A0_19_0 :A0_19_1 :A0_19_2"/>
    <junction id=":A0_28_0" type="internal" x="200.89" y="191.36" incLanes=":A0_16_0 top0A0_0 top0A0_1 top0A0_2" intLanes=":A0_0_0 :A0_1_0 :A0_1_1 :A0_1_2 :A0_7_0 :A0_7_1 :A0_7_2 :A0_10_0 :A0_19_0 :A0_19_1 :A0_19_2 :A0_22_0 :A0_23_0"/>
    <junction id=":A0_29_0" type="internal" x="200.80" y="187.60" incLanes=":A0_17_0 left0A0_0 right0A0_2 top0A0_0 top0A0_1 top0A0_2" intLanes=":A0_1_0 :A0_1_1 :A0_1_2 :A0_10_0 :A0_18_0"/>
    <junction id=":A0_30_0" type="internal" x="191.36" y="199.11" incLanes=":A0_22_0 right0A0_0 right0A0_1 right0A0_2" intLanes=":A0_1_0 :A0_1_1 :A0_1_2 :A0_4_0 :A0_5_0 :A0_6_0 :A0_7_0 :A0_7_1 :A0_7_2 :A0_13_0 :A0_13_1 :A0_13_2 :A0_16_0"/>
    <junction id=":A0_31_0" type="internal" x="187.60" y="199.20" incLanes=":A0_23_0 bottom0A0_2 right0A0_0 right0A0_1 right0A0_2 top0A0_0" intLanes=":A0_0_0 :A0_7_0 :A0_7_1 :A0_7_2 :A0_16_0"/>

    <connection from="A0bottom0" to="bottom0A0" fromLane="2" toLane="2" via=":bottom0_0_0" dir="t" state="M"/>
    <connection from="A0left0" to="left0A0" fromLane="2" toLane="2" via=":left0_0_0" dir="t" state="M"/>
    <connection from="A0right0" to="right0A0" fromLane="2" toLane="2" via=":right0_0_0" dir="t" state="M"/>
    <connection from="A0top0" to="top0A0" fromLane="2" toLane="2" via=":top0_0_0" dir="t" state="M"/>
    <connection from="bottom0A0" to="A0right0" fromLane="0" toLane="0" via=":A0_12_0" tl="A0" linkIndex="12" dir="r" state="O"/>
    <connection from="bottom0A0" to="A0top0" fromLane="0" toLane="0" via=":A0_13_0" tl="A0" linkIndex="13" dir="s" state="O"/>
    <connection from="bottom0A0" to="A0top0" fromLane="1" toLane="1" via=":A0_13_1" tl="A0" linkIndex="14" dir="s" state="O"/>
    <connection from="bottom0A0" to="A0top0" fromLane="2" toLane="2" via=":A0_13_2" tl="A0" linkIndex="15" dir="s" state="O"/>
    <connection from="bottom0A0" to="A0left0" fromLane="2" toLane="2" via=":A0_16_0" tl="A0" linkIndex="16" dir="l" state="o"/>
    <connection from="bottom0A0" to="A0bottom0" fromLane="2" toLane="2" via=":A0_17_0" tl="A0" linkIndex="17" dir="t" state="o"/>
    <connection from="left0A0" to="A0bottom0" fromLane="0" toLane="0" via=":A0_18_0" tl="A0" linkIndex="18" dir="r" state="o"/>
    <connection from="left0A0" to="A0right0" fromLane="0" toLane="0" via=":A0_19_0" tl="A0" linkIndex="19" dir="s" state="o"/>
    <connection from="left0A0" to="A0right0" fromLane="1" toLane="1" via=":A0_19_1" tl="A0" linkIndex="20" dir="s" state="o"/>
    <connection from="left0A0" to="A0right0" fromLane="2" toLane="2" via=":A0_19_2" tl="A0" linkIndex="21" dir="s" state="o"/>
    <connection from="left0A0" to="A0top0" fromLane="2" toLane="2" via=":A0_22_0" tl="A0" linkIndex="22" dir="l" state="o"/>
    <connection from="left0A0" to="A0left0" fromLane="2" toLane="2" via=":A0_23_0" tl="A0" linkIndex="23" dir="t" state="o"/>
    <connection from="right0A0" to="A0top0" fromLane="0" toLane="0" via=":A0_6_0" tl="A0" linkIndex="6" dir="r" state="o"/>
    <connection from="right0A0" to="A0left0" fromLane="0" toLane="0" via=":A0_7_0" tl="A0" linkIndex="7" dir="s" state="o"/>
    <connection from="right0A0" to="A0left0" fromLane="1" toLane="1" via=":A0_7_1" tl="A0" linkIndex="8" dir="s" state="o"/>
    <connection from="right0A0" to="A0left0" fromLane="2" toLane="2" via=":A0_7_2" tl="A0" linkIndex="9" dir="s" state="o"/>
    <connection from="right0A0" to="A0bottom0" fromLane="2" toLane="2" via=":A0_10_0" tl="A0" linkIndex="10" dir="l" state="o"/>
    <connection from="right0A0" to="A0right0" fromLane="2" toLane="2" via=":A0_11_0" tl="A0" linkIndex="11" dir="t" state="o"/>
    <connection from="top0A0" to="A0left0" fromLane="0" toLane="0" via=":A0_0_0" tl="A0" linkIndex="0" dir="r" state="O"/>
    <connection from="top0A0" to="A0bottom0" fromLane="0" toLane="0" via=":A0_1_0" tl="A0" linkIndex="1" dir="s" state="O"/>
    <connection from="top0A0" to="A0bottom0" fromLane="1" toLane="1" via=":A0_1_1" tl="A0" linkIndex="2" dir="s" state="O"/>
    <connection from="top0A0" to="A0bottom0" fromLane="2" toLane="2" via=":A0_1_2" tl="A0" linkIndex="3" dir="s" state="O"/>
    <connection from="top0A0" to="A0right0" fromLane="2" toLane="2" via=":A0_4_0" tl="A0" linkIndex="4" dir="l" state="o"/>
    <connection from="top0A0" to="A0top0" fromLane="2" toLane="2" via=":A0_5_0" tl="A0" linkIndex="5" dir="t" state="o"/>

    <connection from=":A0_0" to="A0left0" fromLane="0" toLane="0" dir="r" state="M"/>
    <connection from=":A0_1" to="A0bottom0" fromLane="0" toLane="0" dir="s" state="M"/>
    <connection from=":A0_1" to="A0bottom0" fromLane="1" toLane="1" dir="s" state="M"/>
    <connection from=":A0_1" to="A0bottom0" fromLane="2" toLane="2" dir="s" state="M"/>
    <connection from=":A0_4" to="A0right0" fromLane="0" toLane="2" via=":A0_24_0" dir="l" state="m"/>
    <connection from=":A0_24" to="A0right0" fromLane="0" toLane="2" dir="l" state="M"/>
    <connection from=":A0_5" to="A0top0" fromLane="0" toLane="2" via=":A0_25_0" dir="t" state="m"/>
    <connection from=":A0_25" to="A0top0" fromLane="0" toLane="2" dir="t" state="M"/>
    <connection from=":A0_6" to="A0top0" fromLane="0" toLane="0" dir="r" state="M"/>
    <connection from=":A0_7" to="A0left0" fromLane="0" toLane="0" dir="s" state="M"/>
    <connection from=":A0_7" to="A0left0" fromLane="1" toLane="1" dir="s" state="M"/>
    <connection from=":A0_7" to="A0left0" fromLane="2" toLane="2" dir="s" state="M"/>
    <connection from=":A0_10" to="A0bottom0" fromLane="0" toLane="2" via=":A0_26_0" dir="l" state="m"/>
    <connection from=":A0_26" to="A0bottom0" fromLane="0" toLane="2" dir="l" state="M"/>
    <connection from=":A0_11" to="A0right0" fromLane="0" toLane="2" via=":A0_27_0" dir="t" state="m"/>
    <connection from=":A0_27" to="A0right0" fromLane="0" toLane="2" dir="t" state="M"/>
    <connection from=":A0_12" to="A0right0" fromLane="0" toLane="0" dir="r" state="M"/>
    <connection from=":A0_13" to="A0top0" fromLane="0" toLane="0" dir="s" state="M"/>
    <connection from=":A0_13" to="A0top0" fromLane="1" toLane="1" dir="s" state="M"/>
    <connection from=":A0_13" to="A0top0" fromLane="2" toLane="2" dir="s" state="M"/>
    <connection from=":A0_16" to="A0left0" fromLane="0" toLane="2" via=":A0_28_0" dir="l" state="m"/>
    <connection from=":A0_28" to="A0left0" fromLane="0" toLane="2" dir="l" state="M"/>
    <connection from=":A0_17" to="A0bottom0" fromLane="0" toLane="2" via=":A0_29_0" dir="t" state="m"/>
    <connection from=":A0_29" to="A0bottom0" fromLane="0" toLane="2" dir="t" state="M"/>
    <connection from=":A0_18" to="A0bottom0" fromLane="0" toLane="0" dir="r" state="M"/>
    <connection from=":A0_19" to="A0right0" fromLane="0" toLane="0" dir="s" state="M"/>
    <connection from=":A0_19" to="A0right0" fromLane="1" toLane="1" dir="s" state="M"/>
    <connection from=":A0_19" to="A0right0" fromLane="2" toLane="2" dir="s" state="M"/>
    <connection from=":A0_22" to="A0top0" fromLane="0" toLane="2" via=":A0_30_0" dir="l" state="m"/>
    <connection from=":A0_30" to="A0top0" fromLane="0" toLane="2" dir="l" state="M"/>
    <connection from=":A0_23" to="A0left0" fromLane="0" toLane="2" via=":A0_31_0" dir="t" state="m"/>
    <connection from=":A0_31" to="A0left0" fromLane="0" toLane="2" dir="t" state="M"/>
    <connection from=":bottom0_0" to="bottom0A0" fromLane="0" toLane="2" dir="t" state="M"/>
    <connection from=":left0_0" to="left0A0" fromLane="0" toLane="2" dir="t" state="M"/>
    <connection from=":right0_0" to="right0A0" fromLane="0" toLane="2" dir="t" state="M"/>
    <connection from=":top0_0" to="top0A0" fromLane="0" toLane="2" dir="t" state="M"/>

</net>
